/*--------------------------------*- C++ -*----------------------------------*\
| =========                 |                                                 |
| \\      /  F ield         | OpenFOAM: The Open Source CFD Toolbox           |
|  \\    /   O peration     | Version:  2.4.0                                 |
|   \\  /    A nd           | Web:      www.OpenFOAM.org                      |
|    \\/     M anipulation  |                                                 |
\*---------------------------------------------------------------------------*/
FoamFile
{
    version     0.0;
    format      ascii;
    class       polyBoundaryMesh;
    location    "constant/polyMesh";
    object      boundary;
}
// * * * * * * * * * * * * * * * * * * * * * * * * * * * * * * * * * * * * * //


9
(
AMI2_2
{
    type            cyclicAMI;
    nFaces          21380;
    startFace       2882393;
    matchTolerance  1e-05;
    transform       noOrdering;
    neighbourPatch  AMI2_1;
}

Wall_3
{
    type            wall;
    nFaces          106666;
    startFace       2903773;
}

Outlet
{
    type            patch;
    nFaces          21400;
    startFace       3010439;
}

AMI1_2
{
    type            cyclicAMI;
    nFaces          21368;
    startFace       3031839;
    matchTolerance  1e-05;
    transform       noOrdering;
    neighbourPatch  AMI1_1;
}

AMI2_1
{
    type            cyclicAMI;
    nFaces          21378;
    startFace       3053207;
    matchTolerance  1e-05;
    transform       noOrdering;
    neighbourPatch  AMI2_2;
}

Wall_2
{
    type            wall;
    nFaces          91892;
    startFace       3074585;
}

Inlet
{
    type            patch;
    nFaces          21388;
    startFace       3166477;
}

Wall_1
{
    type            wall;
    nFaces          12214;
    startFace       3187865;
}

AMI1_1
{
    type            cyclicAMI;
    nFaces          19896;
    startFace       3200079;
    matchTolerance  1e-05;
    transform       noOrdering;
    neighbourPatch  AMI1_2;
}

)


// ************************************************************************* //
