/*--------------------------------*- C++ -*----------------------------------*\
| =========                 |                                                 |
| \\      /  F ield         | OpenFOAM: The Open Source CFD Toolbox           |
|  \\    /   O peration     | Version:  2.4.0                                 |
|   \\  /    A nd           | Web:      www.OpenFOAM.org                      |
|    \\/     M anipulation  |                                                 |
\*---------------------------------------------------------------------------*/
FoamFile
{
    version     2.0;
    format      ascii;
    class       dictionary;
    location    "system";
    object      controlDict;
}
// * * * * * * * * * * * * * * * * * * * * * * * * * * * * * * * * * * * * * //

application     dsmcFoam;

dynamicFvMesh   solidBodyMotionFvMesh;

libs
(
    "libfvMotionSolvers.so"
);

forceDynamicMeshUpdate  yes;

nTerminalOutputs    1;

startFrom       startTime;

startTime       0;

stopAt          endTime;

endTime         1e-6;

deltaT          1e-6;

writeControl    runTime;

writeInterval   1e-6;

purgeWrite      0;

writeFormat     ascii;

writePrecision  10;

writeCompression off;

timeFormat      general;

timePrecision   6;

runTimeModifiable true;

adjustTimeStep  no;

writeMesh       true;

    dsmcFields1
    {
        type            dsmcFields;
        functionObjectLibs ( "libutilityFunctionObjects.so" );
        enabled         true;
        outputControl   outputTime;
    }
}


// ************************************************************************* //
